lig1
  PyMOL3.1          3D                             0

 42 44  0  0  0  0  0  0  0  0999 V2000
  -14.9924  -19.1081    1.0254 H   0  0  0  0  0  0  0  0  0  0  0  0
  -14.9534  -19.1750   -0.0619 C   0  0  0  0  0  0  0  0  0  0  0  0
  -13.9263  -19.4329   -0.3200 H   0  0  0  0  0  0  0  0  0  0  0  0
  -14.1706  -18.1820   -2.4991 H   0  0  0  0  0  0  0  0  0  0  0  0
  -16.8253  -20.0647   -8.8603 H   0  0  0  0  0  0  0  0  0  0  0  0
  -16.7093  -18.3680   -9.2058 H   0  0  0  0  0  0  0  0  0  0  0  0
  -16.9661  -19.9977   -0.3689 H   0  0  0  0  0  0  0  0  0  0  0  0
  -17.3391  -19.4532   -6.6610 H   0  0  0  0  0  0  0  0  0  0  0  0
  -16.7581  -17.8190   -6.8684 H   0  0  0  0  0  0  0  0  0  0  0  0
  -10.0329  -18.6494   -8.1089 C   0  0  0  0  0  0  0  0  0  0  0  0
  -16.4642  -21.0769   -2.5141 H   0  0  0  0  0  0  0  0  0  0  0  0
  -14.4630  -19.3228  -10.8089 H   0  0  0  0  0  0  0  0  0  0  0  0
  -12.4179  -19.7065   -6.2508 H   0  0  0  0  0  0  0  0  0  0  0  0
  -14.6936  -17.0983   -0.3462 H   0  0  0  0  0  0  0  0  0  0  0  0
  -16.3933  -17.5946   -0.4885 H   0  0  0  0  0  0  0  0  0  0  0  0
  -17.0184  -19.8199   -4.3978 H   0  0  0  0  0  0  0  0  0  0  0  0
   -9.0827  -18.6617   -8.6428 H   0  0  0  0  0  0  0  0  0  0  0  0
  -10.6860  -19.9112   -8.2708 O   0  0  0  0  0  0  0  0  0  0  0  0
  -11.9991  -19.6670  -10.5635 H   0  0  0  0  0  0  0  0  0  0  0  0
  -16.5748  -18.0393   -4.4408 H   0  0  0  0  0  0  0  0  0  0  0  0
  -14.7488  -20.6142   -2.3743 H   0  0  0  0  0  0  0  0  0  0  0  0
  -10.6651  -17.8581   -8.5116 H   0  0  0  0  0  0  0  0  0  0  0  0
   -9.8515  -18.4668   -7.0497 H   0  0  0  0  0  0  0  0  0  0  0  0
  -15.5145  -21.7469    0.1884 Cl  0  0  0  0  0  0  0  0  0  0  0  0
  -15.4919  -17.0147   -2.7130 H   0  0  0  0  0  0  0  0  0  0  0  0
  -15.9270  -20.2220   -0.6100 C   0  0  0  0  0  0  0  0  0  0  0  0
  -15.7720  -20.3260   -2.1330 C   0  0  0  0  0  0  0  0  0  0  0  0
  -16.0730  -19.0330   -2.7530 N   0  0  0  0  0  0  0  0  0  0  0  0
  -16.2740  -19.0540   -4.1800 C   0  0  0  0  0  0  0  0  0  0  0  0
  -15.0330  -19.3450   -5.0530 C   0  0  0  0  0  0  0  0  0  0  0  0
  -13.9440  -19.6300   -4.5690 O   0  0  0  0  0  0  0  0  0  0  0  0
  -15.2340  -19.2610   -6.4180 N   0  0  0  0  0  0  0  0  0  0  0  0
  -16.5120  -18.8640   -7.0570 C   0  0  0  0  0  0  0  0  0  0  0  0
  -16.3090  -19.1520   -8.5630 C   0  0  0  0  0  0  0  0  0  0  0  0
  -14.8120  -19.3110   -8.6850 C   0  0  0  0  0  0  0  0  0  0  0  0
  -14.0160  -19.4030   -9.8180 C   0  0  0  0  0  0  0  0  0  0  0  0
  -12.6380  -19.5990   -9.6830 C   0  0  0  0  0  0  0  0  0  0  0  0
  -12.0950  -19.7060   -8.4030 C   0  0  0  0  0  0  0  0  0  0  0  0
  -12.8650  -19.6180   -7.2410 C   0  0  0  0  0  0  0  0  0  0  0  0
  -14.2360  -19.4110   -7.4100 C   0  0  0  0  0  0  0  0  0  0  0  0
  -15.2090  -17.9610   -2.2520 C   0  0  0  0  0  0  0  0  0  0  0  0
  -15.3660  -17.8630   -0.7350 C   0  0  0  0  0  0  0  0  0  0  0  0
  1  2  1  0  0  0  0
  2  3  1  0  0  0  0
  4 41  1  0  0  0  0
  5 34  1  0  0  0  0
  6 34  1  0  0  0  0
  7 26  1  0  0  0  0
  8 33  1  0  0  0  0
  9 33  1  0  0  0  0
 10 17  1  0  0  0  0
 10 18  1  0  0  0  0
 10 22  1  0  0  0  0
 10 23  1  0  0  0  0
 11 27  1  0  0  0  0
 12 36  1  0  0  0  0
 13 39  1  0  0  0  0
 14 42  1  0  0  0  0
 15 42  1  0  0  0  0
 16 29  1  0  0  0  0
 18 38  1  0  0  0  0
 19 37  1  0  0  0  0
 20 29  1  0  0  0  0
 21 27  1  0  0  0  0
 24 26  1  0  0  0  0
 25 41  1  0  0  0  0
  2 26  1  0  0  0  0
 26 27  1  0  0  0  0
 27 28  1  0  0  0  0
 28 29  1  0  0  0  0
 28 41  1  0  0  0  0
 29 30  1  0  0  0  0
 30 31  2  0  0  0  0
 30 32  1  0  0  0  0
 32 33  1  0  0  0  0
 32 40  1  0  0  0  0
 33 34  1  0  0  0  0
 34 35  1  0  0  0  0
 35 36  1  0  0  0  0
 35 40  2  0  0  0  0
 36 37  2  0  0  0  0
 37 38  1  0  0  0  0
 38 39  2  0  0  0  0
 39 40  1  0  0  0  0
 41 42  1  0  0  0  0
  2 42  1  0  0  0  0
M  END
